**************************************************
** Linear charge controlled memristor circuit   **
** Ports: Plus, Minus                           **
**************************************************
** Standard Scheme
**************************************************

*********************************************
** Subcircuit and Parameters
*********************************************
.SUBCKT memristor Plus Minus PARAMS:
